Version 4
SHEET 1 880 680
WIRE 192 64 96 64
WIRE 272 64 192 64
WIRE 448 64 272 64
WIRE 96 80 96 64
WIRE 272 160 272 64
WIRE -128 208 -192 208
WIRE 96 208 96 160
WIRE 96 208 16 208
WIRE 208 208 96 208
WIRE 96 224 96 208
WIRE -192 320 -192 208
WIRE 272 336 272 256
WIRE 272 464 272 416
WIRE 400 464 272 464
WIRE 608 464 464 464
WIRE 272 528 272 464
WIRE 608 528 608 464
FLAG 272 608 0
FLAG 608 608 0
FLAG 192 -16 0
FLAG -192 400 0
FLAG 512 64 0
FLAG 608 464 vout
IOPIN 608 464 Out
FLAG 96 304 0
SYMBOL res 80 64 R0
SYMATTR InstName R1
SYMATTR Value 220k
SYMBOL voltage 192 80 R180
WINDOW 0 24 96 Left 2
WINDOW 3 24 16 Left 2
WINDOW 123 0 0 Left 0
WINDOW 39 0 0 Left 0
SYMATTR InstName V1
SYMATTR Value 20
SYMBOL cap 16 192 R90
WINDOW 0 0 32 VBottom 2
WINDOW 3 32 32 VTop 2
SYMATTR InstName C1
SYMATTR Value 1µ
SYMBOL cap 464 448 R90
WINDOW 0 0 32 VBottom 2
WINDOW 3 32 32 VTop 2
SYMATTR InstName C2
SYMATTR Value 10µ
SYMBOL res -32 192 R90
WINDOW 0 0 56 VBottom 2
WINDOW 3 32 56 VTop 2
SYMATTR InstName R2
SYMATTR Value 100
SYMBOL res 288 432 R180
WINDOW 0 36 76 Left 2
WINDOW 3 36 40 Left 2
SYMATTR InstName R4
SYMATTR Value 150
SYMBOL res 288 624 R180
WINDOW 0 36 76 Left 2
WINDOW 3 36 40 Left 2
SYMATTR InstName R5
SYMATTR Value 1.85k
SYMBOL res 624 624 R180
WINDOW 0 36 76 Left 2
WINDOW 3 36 40 Left 2
SYMATTR InstName R6
SYMATTR Value 100k
SYMBOL voltage -192 304 R0
WINDOW 123 0 0 Left 0
WINDOW 39 0 0 Left 0
SYMATTR InstName V2
SYMATTR Value SINE(0 50m 200)
SYMBOL cap 512 48 R90
WINDOW 0 0 32 VBottom 2
WINDOW 3 32 32 VTop 2
SYMATTR InstName C3
SYMATTR Value 10µ
SYMBOL npn 208 160 R0
SYMATTR InstName Q1
SYMATTR Value 2N2222
SYMBOL res 80 208 R0
SYMATTR InstName R3
SYMATTR Value 20k
TEXT -226 632 Left 2 !.tran 100ms
