Version 4
SHEET 1 880 680
WIRE 112 -64 96 -64
WIRE 192 -64 176 -64
WIRE 352 -64 192 -64
WIRE 96 80 96 -64
WIRE 96 80 -112 80
WIRE 96 96 96 80
WIRE 160 96 96 96
WIRE 352 112 352 -64
WIRE 352 112 224 112
WIRE -192 128 -192 80
WIRE 16 128 -32 128
WIRE 160 128 128 128
WIRE -32 144 -32 128
WIRE 96 144 96 128
WIRE 96 144 128 128
WIRE 96 240 96 224
FLAG 352 192 0
FLAG 192 224 0
FLAG 192 0 0
FLAG -192 208 0
FLAG -32 224 0
FLAG 96 240 0
SYMBOL Opamps\\AD8066 192 48 R0
SYMATTR InstName U1
SYMBOL res -96 64 R90
WINDOW 0 0 56 VBottom 2
WINDOW 3 32 56 VTop 2
SYMATTR InstName R2
SYMATTR Value 1k
SYMBOL voltage 192 96 R180
WINDOW 0 24 96 Left 2
WINDOW 3 24 16 Left 2
WINDOW 123 0 0 Left 0
WINDOW 39 0 0 Left 0
SYMATTR InstName V1
SYMATTR Value 20
SYMBOL voltage 192 240 R180
WINDOW 0 24 96 Left 2
WINDOW 3 24 16 Left 2
WINDOW 123 0 0 Left 0
WINDOW 39 0 0 Left 0
SYMATTR InstName V2
SYMATTR Value 12
SYMBOL res 336 96 R0
SYMATTR InstName R3
SYMATTR Value 10k
SYMBOL voltage -192 112 R0
WINDOW 123 0 0 Left 0
WINDOW 39 0 0 Left 0
WINDOW 3 -195 72 Left 2
SYMATTR InstName V3
SYMATTR Value SINE(0 2 500)
SYMBOL res 208 -80 R90
WINDOW 0 0 56 VBottom 2
WINDOW 3 32 56 VTop 2
SYMATTR InstName R1
SYMATTR Value 1K
SYMBOL voltage -32 128 R0
WINDOW 3 -37 133 Left 2
WINDOW 123 0 0 Left 0
WINDOW 39 0 0 Left 0
SYMATTR InstName V4
SYMATTR Value SINE(0 5 500)
SYMBOL res 112 112 R90
WINDOW 0 0 56 VBottom 2
WINDOW 3 32 56 VTop 2
SYMATTR InstName R4
SYMATTR Value 1k
SYMBOL res 80 128 R0
SYMATTR InstName R5
SYMATTR Value 1k
TEXT -224 248 Left 2 !.tran 10m
