Version 4
SHEET 1 880 680
WIRE 112 -64 96 -64
WIRE 352 -64 176 -64
WIRE 32 96 -32 96
WIRE 96 96 96 -64
WIRE 112 96 96 96
WIRE 160 96 112 96
WIRE 352 112 352 -64
WIRE 352 112 224 112
WIRE -32 128 -32 96
WIRE 160 128 96 128
WIRE 96 224 96 128
FLAG 352 192 0
FLAG 192 224 0
FLAG 192 0 0
FLAG 96 224 0
FLAG -32 208 0
SYMBOL Opamps\\AD8066 192 48 R0
SYMATTR InstName U1
SYMBOL res 128 80 R90
WINDOW 0 0 56 VBottom 2
WINDOW 3 32 56 VTop 2
SYMATTR InstName R2
SYMATTR Value 1k
SYMBOL voltage 192 96 R180
WINDOW 0 24 96 Left 2
WINDOW 3 24 16 Left 2
WINDOW 123 0 0 Left 0
WINDOW 39 0 0 Left 0
SYMATTR InstName V1
SYMATTR Value 20
SYMBOL voltage 192 240 R180
WINDOW 0 24 96 Left 2
WINDOW 3 24 16 Left 2
WINDOW 123 0 0 Left 0
WINDOW 39 0 0 Left 0
SYMATTR InstName V2
SYMATTR Value 12
SYMBOL res 336 96 R0
SYMATTR InstName R3
SYMATTR Value 10k
SYMBOL voltage -32 112 R0
WINDOW 123 0 0 Left 0
WINDOW 39 0 0 Left 0
SYMATTR InstName V3
SYMATTR Value SINE(0 5 500)
SYMBOL cap 176 -80 R90
WINDOW 0 0 32 VBottom 2
WINDOW 3 32 32 VTop 2
SYMATTR InstName C1
SYMATTR Value 0.1µ
TEXT -64 248 Left 2 !.tran 10m
